Version 4
SHEET 1 880 680
WIRE -480 -192 -672 -192
WIRE -304 -192 -480 -192
WIRE -112 -192 -304 -192
WIRE 64 -192 -112 -192
WIRE 256 -192 64 -192
WIRE 512 -192 256 -192
WIRE 624 -192 512 -192
WIRE -672 -144 -672 -192
WIRE -304 -144 -304 -192
WIRE 64 -144 64 -192
WIRE -672 -48 -672 -64
WIRE -640 -48 -672 -48
WIRE -480 -48 -480 -112
WIRE -480 -48 -496 -48
WIRE -416 -48 -480 -48
WIRE -304 -48 -304 -64
WIRE -272 -48 -304 -48
WIRE -112 -48 -112 -112
WIRE -112 -48 -128 -48
WIRE -48 -48 -112 -48
WIRE 64 -48 64 -64
WIRE 96 -48 64 -48
WIRE 256 -48 256 -112
WIRE 256 -48 240 -48
WIRE -864 -32 -928 -32
WIRE -480 0 -480 -48
WIRE -112 0 -112 -48
WIRE 256 0 256 -48
WIRE -784 48 -784 -32
WIRE -640 48 -640 -48
WIRE -640 48 -656 48
WIRE -544 48 -640 48
WIRE -416 48 -416 -48
WIRE -272 48 -272 -48
WIRE -272 48 -288 48
WIRE -176 48 -272 48
WIRE -48 48 -48 -48
WIRE 96 48 96 -48
WIRE 96 48 80 48
WIRE 192 48 96 48
WIRE 512 48 512 -192
WIRE -928 64 -928 48
WIRE -928 176 -928 144
WIRE -480 176 -480 96
WIRE -480 176 -928 176
WIRE -112 176 -112 96
WIRE -112 176 -480 176
WIRE 256 176 -112 176
WIRE 512 176 512 128
WIRE 512 176 256 176
WIRE 576 176 512 176
WIRE -112 192 -112 176
FLAG 512 176 0
SYMBOL voltage 512 32 R0
WINDOW 123 0 0 Left 2
WINDOW 39 0 0 Left 2
SYMATTR InstName V1
SYMATTR Value 10
SYMBOL voltage -928 48 R0
WINDOW 0 36 45 Left 2
WINDOW 3 -276 62 Left 2
WINDOW 123 0 0 Left 2
WINDOW 39 0 0 Left 2
SYMATTR InstName V2
SYMATTR Value SINE(0 0.03 140000k)
SYMBOL cap 96 32 R90
WINDOW 0 0 32 VBottom 2
WINDOW 3 32 32 VTop 2
SYMATTR InstName C2
SYMATTR Value 100n
SYMBOL res 48 32 R90
WINDOW 0 0 56 VBottom 2
WINDOW 3 32 56 VTop 2
SYMATTR InstName R4
SYMATTR Value 180
SYMBOL voltage -928 -48 R0
WINDOW 3 -271 73 Left 2
WINDOW 123 -271 101 Left 2
WINDOW 39 0 0 Left 2
SYMATTR Value SINE(0 0.03 141000k)
SYMATTR Value2 AC 2
SYMATTR InstName V3
SYMBOL res -768 -48 R90
WINDOW 0 0 56 VBottom 2
WINDOW 3 32 56 VTop 2
SYMATTR InstName R12
SYMATTR Value 50
SYMBOL res 48 -160 R0
SYMATTR InstName R2
SYMATTR Value 22k
SYMBOL cap 160 -64 R90
WINDOW 0 0 32 VBottom 2
WINDOW 3 32 32 VTop 2
SYMATTR InstName C8
SYMATTR Value 100n
SYMBOL res 256 -64 R90
WINDOW 0 0 56 VBottom 2
WINDOW 3 32 56 VTop 2
SYMATTR InstName R3
SYMATTR Value 470
SYMBOL res 240 -208 R0
SYMATTR InstName R16
SYMATTR Value 100
SYMBOL bfg591 192 0 R0
SYMATTR InstName U5
SYMBOL res 240 80 R0
SYMATTR InstName R17
SYMATTR Value 5
SYMBOL cap -272 32 R90
WINDOW 0 0 32 VBottom 2
WINDOW 3 32 32 VTop 2
SYMATTR InstName C1
SYMATTR Value 100n
SYMBOL res -320 32 R90
WINDOW 0 0 56 VBottom 2
WINDOW 3 32 56 VTop 2
SYMATTR InstName R1
SYMATTR Value 180
SYMBOL res -320 -160 R0
SYMATTR InstName R5
SYMATTR Value 33k
SYMBOL cap -208 -64 R90
WINDOW 0 0 32 VBottom 2
WINDOW 3 32 32 VTop 2
SYMATTR InstName C3
SYMATTR Value 100n
SYMBOL res -112 -64 R90
WINDOW 0 0 56 VBottom 2
WINDOW 3 32 56 VTop 2
SYMATTR InstName R6
SYMATTR Value 470
SYMBOL bfg591 -176 0 R0
SYMATTR InstName U1
SYMBOL cap -640 32 R90
WINDOW 0 0 32 VBottom 2
WINDOW 3 32 32 VTop 2
SYMATTR InstName C4
SYMATTR Value 100n
SYMBOL res -688 32 R90
WINDOW 0 0 56 VBottom 2
WINDOW 3 32 56 VTop 2
SYMATTR InstName R9
SYMATTR Value 180
SYMBOL res -688 -160 R0
SYMATTR InstName R10
SYMATTR Value 33k
SYMBOL cap -576 -64 R90
WINDOW 0 0 32 VBottom 2
WINDOW 3 32 32 VTop 2
SYMATTR InstName C5
SYMATTR Value 100n
SYMBOL res -480 -64 R90
WINDOW 0 0 56 VBottom 2
WINDOW 3 32 56 VTop 2
SYMATTR InstName R11
SYMATTR Value 470
SYMBOL bfg591 -544 0 R0
SYMATTR InstName U2
SYMBOL ind -128 -208 R0
SYMATTR InstName L1
SYMATTR Value 1µ
SYMBOL ind -496 -208 R0
SYMATTR InstName L2
SYMATTR Value 1µ
TEXT -104 288 Left 2 !.inc C:\\Program Files\\LTC\\LTspiceIV\\lib\\sub\\2sc3357.sub
TEXT -408 312 Left 2 !.tran 0 20u 0 100p
TEXT -112 248 Left 2 !.inc C:\\Program Files\\LTC\\LTspiceIV\\lib\\sub\\bfg591.sub
TEXT -1216 296 Left 2 !;ac oct 10 1000k 500000k
TEXT -96 336 Left 2 !.inc C:\\Program Files\\LTC\\LTspiceIV\\lib\\sub\\bfg425w.sub
