Version 4
SHEET 1 880 680
WIRE 48 -368 -80 -368
WIRE 512 -368 48 -368
WIRE -80 -304 -80 -368
WIRE 48 -304 48 -368
WIRE -80 -208 -80 -224
WIRE 48 -208 48 -224
WIRE 512 -192 512 -368
WIRE 624 -192 512 -192
WIRE -160 -112 -160 -208
WIRE -144 -112 -160 -112
WIRE -80 -112 -80 -208
WIRE 48 -112 48 -208
WIRE 128 -112 128 -208
WIRE 128 -112 112 -112
WIRE -160 -96 -160 -112
WIRE 128 -96 128 -112
WIRE -80 -48 -80 -112
WIRE 48 -48 48 -112
WIRE -464 -32 -528 -32
WIRE -304 -32 -320 -32
WIRE -304 0 -304 -32
WIRE -160 0 -160 -16
WIRE -160 0 -224 0
WIRE -144 0 -160 0
WIRE 128 0 128 -16
WIRE 128 0 112 0
WIRE 256 0 128 0
WIRE -16 48 -80 48
WIRE 48 48 -16 48
WIRE 512 48 512 -192
WIRE -528 64 -528 48
WIRE 256 112 256 0
WIRE -528 176 -528 144
WIRE -16 176 -16 128
WIRE -16 176 -528 176
WIRE 256 176 -16 176
WIRE 512 176 512 128
WIRE 512 176 256 176
WIRE 576 176 512 176
FLAG 512 176 0
SYMBOL voltage 512 32 R0
WINDOW 123 0 0 Left 2
WINDOW 39 0 0 Left 2
SYMATTR InstName V1
SYMATTR Value 10
SYMBOL voltage -528 48 R0
WINDOW 0 36 45 Left 2
WINDOW 3 -276 62 Left 2
WINDOW 123 0 0 Left 2
WINDOW 39 0 0 Left 2
SYMATTR InstName V2
SYMATTR Value SINE(0 0.19 40000k)
SYMBOL voltage -528 -48 R0
WINDOW 3 -271 73 Left 2
WINDOW 123 -271 101 Left 2
WINDOW 39 0 0 Left 2
SYMATTR Value SINE(0 0.19 41000k)
SYMATTR Value2 AC 2
SYMATTR InstName V3
SYMBOL res -368 -48 R90
WINDOW 0 0 56 VBottom 2
WINDOW 3 32 56 VTop 2
SYMATTR InstName R12
SYMATTR Value 50
SYMBOL bfg591 -144 -48 R0
SYMATTR InstName U5
SYMBOL bfg591 112 -48 M0
SYMATTR InstName U1
SYMBOL res -32 32 R0
SYMATTR InstName R1
SYMATTR Value 50
SYMBOL res -96 -320 R0
SYMATTR InstName R2
SYMATTR Value 100
SYMBOL res 32 -320 R0
WINDOW 3 41 65 Left 2
SYMATTR InstName R3
SYMATTR Value 100
SYMBOL cap -80 -128 R90
WINDOW 0 10 55 VBottom 2
WINDOW 3 32 32 VTop 2
SYMATTR InstName C2
SYMATTR Value 100n
SYMBOL res -64 -224 R90
WINDOW 0 46 100 VBottom 2
WINDOW 3 32 56 VTop 2
SYMATTR InstName R4
SYMATTR Value 22k
SYMBOL cap 112 -128 R90
WINDOW 0 10 55 VBottom 2
WINDOW 3 32 32 VTop 2
SYMATTR InstName C3
SYMATTR Value 100n
SYMBOL res 144 -224 R90
WINDOW 0 54 10 VBottom 2
WINDOW 3 32 56 VTop 2
SYMATTR InstName R5
SYMATTR Value 22k
SYMBOL res -176 -112 R0
WINDOW 0 -37 46 Left 2
WINDOW 3 -45 79 Left 2
SYMATTR InstName R6
SYMATTR Value 330
SYMBOL res 112 -112 R0
SYMATTR InstName R7
SYMATTR Value 470
SYMBOL cap 240 112 R0
SYMATTR InstName C1
SYMATTR Value 100n
SYMBOL cap -320 -48 R90
WINDOW 0 0 32 VBottom 2
WINDOW 3 32 32 VTop 2
SYMATTR InstName C4
SYMATTR Value 100n
SYMBOL res -208 -16 R90
WINDOW 0 0 56 VBottom 2
WINDOW 3 32 56 VTop 2
SYMATTR InstName R9
SYMATTR Value 220
TEXT -104 288 Left 2 !.inc C:\\Program Files\\LTC\\LTspiceIV\\lib\\sub\\2sc3357.sub
TEXT -408 312 Left 2 !.tran 0 20u 0 100p
TEXT -112 248 Left 2 !.inc C:\\Program Files\\LTC\\LTspiceIV\\lib\\sub\\bfg591.sub
TEXT -1216 296 Left 2 !;ac oct 10 1000k 500000k
TEXT -96 336 Left 2 !.inc C:\\Program Files\\LTC\\LTspiceIV\\lib\\sub\\bfg425w.sub
