Version 4
SHEET 1 880 680
WIRE 0 -480 -16 -480
WIRE 176 -416 -304 -416
WIRE -80 -368 -256 -368
WIRE 48 -368 -80 -368
WIRE 512 -368 48 -368
WIRE -80 -288 -144 -288
WIRE 112 -288 48 -288
WIRE 176 -272 176 -416
WIRE -96 -208 -96 -480
WIRE -96 -208 -144 -208
WIRE -80 -208 -96 -208
WIRE 80 -208 80 -480
WIRE 80 -208 48 -208
WIRE 112 -208 80 -208
WIRE -80 -192 -80 -208
WIRE 48 -192 48 -208
WIRE 512 -192 512 -368
WIRE 624 -192 512 -192
WIRE -304 -144 -304 -416
WIRE -256 -144 -256 -288
WIRE -256 -144 -304 -144
WIRE -144 -144 -256 -144
WIRE 176 -144 176 -192
WIRE 176 -144 112 -144
WIRE -464 -32 -528 -32
WIRE -256 -32 -256 -144
WIRE -256 -32 -320 -32
WIRE -16 -16 -80 -16
WIRE 48 -16 -16 -16
WIRE 512 48 512 -192
WIRE -528 64 -528 48
WIRE -80 80 -80 64
WIRE -16 80 -16 64
WIRE -16 80 -80 80
WIRE -256 96 -256 -32
WIRE -16 96 -16 80
WIRE -528 176 -528 144
WIRE -256 176 -528 176
WIRE -16 176 -256 176
WIRE 512 176 512 128
WIRE 512 176 -16 176
WIRE 576 176 512 176
FLAG 512 176 0
FLAG 176 -80 0
SYMBOL voltage 512 32 R0
WINDOW 123 0 0 Left 2
WINDOW 39 0 0 Left 2
SYMATTR InstName V1
SYMATTR Value 10
SYMBOL voltage -528 48 R0
WINDOW 0 36 45 Left 2
WINDOW 3 -276 62 Left 2
WINDOW 123 0 0 Left 2
WINDOW 39 0 0 Left 2
SYMATTR InstName V2
SYMATTR Value SINE(0 0.07 4000k)
SYMBOL voltage -528 -48 R0
WINDOW 3 -271 73 Left 2
WINDOW 123 -271 101 Left 2
WINDOW 39 0 0 Left 2
SYMATTR Value SINE(0 0.07 3000k)
SYMATTR Value2 AC 2
SYMATTR InstName V3
SYMBOL res -368 -48 R90
WINDOW 0 0 56 VBottom 2
WINDOW 3 32 56 VTop 2
SYMATTR InstName R12
SYMATTR Value 50
SYMBOL cap -320 -48 R90
WINDOW 0 0 32 VBottom 2
WINDOW 3 32 32 VTop 2
SYMATTR InstName C4
SYMATTR Value 100n
SYMBOL res -32 80 R0
SYMATTR InstName R1
SYMATTR Value 33
SYMBOL res -96 -112 R0
SYMATTR InstName R4
SYMATTR Value 33
SYMBOL res 32 -112 R0
SYMATTR InstName R5
SYMATTR Value 33
SYMBOL res -96 -384 R0
SYMATTR InstName R6
SYMATTR Value 100
SYMBOL res 32 -384 R0
SYMATTR InstName R7
SYMATTR Value 100
SYMBOL res -272 80 R0
SYMATTR InstName R8
SYMATTR Value 1k
SYMBOL res -272 -384 R0
SYMATTR InstName R9
SYMATTR Value 2.2k
SYMBOL cap 160 -144 R0
SYMATTR InstName C1
SYMATTR Value 100n
SYMBOL res 160 -288 R0
SYMATTR InstName R10
SYMATTR Value 220
SYMBOL ind 32 -304 R0
SYMATTR InstName L1
SYMATTR Value 1µ
SYMBOL ind -96 -304 R0
SYMATTR InstName L2
SYMATTR Value 1µ
SYMBOL ind -32 -32 R0
SYMATTR InstName L3
SYMATTR Value 1µ
SYMBOL res 0 -496 R90
WINDOW 0 0 56 VBottom 2
WINDOW 3 32 56 VTop 2
SYMATTR InstName R2
SYMATTR Value 1k
SYMBOL res 96 -496 R90
WINDOW 0 0 56 VBottom 2
WINDOW 3 32 56 VTop 2
SYMATTR InstName R3
SYMATTR Value 1k
SYMBOL 2sc3357 -144 -192 R0
SYMATTR InstName U1
SYMBOL 2sc3357 112 -192 M0
SYMATTR InstName U2
SYMBOL res -160 -304 R0
SYMATTR InstName R13
SYMATTR Value 100
SYMBOL res 96 -304 R0
SYMATTR InstName R14
SYMATTR Value 100
TEXT -104 288 Left 2 !.inc C:\\Program Files\\LTC\\LTspiceIV\\lib\\sub\\2sc3357.sub
TEXT -408 312 Left 2 !;tran 0 20u 0 100p
TEXT -112 248 Left 2 !.inc C:\\Program Files\\LTC\\LTspiceIV\\lib\\sub\\bfg591.sub
TEXT -1216 296 Left 2 !.ac oct 10 1000k 500000k
TEXT -96 336 Left 2 !.inc C:\\Program Files\\LTC\\LTspiceIV\\lib\\sub\\bfg425w.sub
